
OS:Version,
  {44a318e7-7bd5-4b40-a55b-af5b2cfac931}, !- Handle
  1.14.0;                                 !- Version Identifier

OS:ScheduleTypeLimits,
  {a12cc5ae-25a6-4426-bb7b-01c3fc576851}, !- Handle
  Fraction,                               !- Name
  0,                                      !- Lower Limit Value
  1,                                      !- Upper Limit Value
  Continuous;                             !- Numeric Type

OS:ScheduleTypeLimits,
  {0c334d00-cf8f-471c-a621-459a8281fa85}, !- Handle
  OnOff,                                  !- Name
  0,                                      !- Lower Limit Value
  1,                                      !- Upper Limit Value
  Continuous,                             !- Numeric Type
  Availability;                           !- Unit Type

OS:ScheduleTypeLimits,
  {dce33fb0-d26d-4502-98fc-a6e2dec19ef5}, !- Handle
  Temperature,                            !- Name
  ,                                       !- Lower Limit Value
  ,                                       !- Upper Limit Value
  Continuous,                             !- Numeric Type
  Temperature;                            !- Unit Type

OS:ScheduleTypeLimits,
  {9a051f70-b564-4d0c-9974-7c25b5f8b341}, !- Handle
  Dimensionless,                          !- Name
  ,                                       !- Lower Limit Value
  ,                                       !- Upper Limit Value
  Continuous;                             !- Numeric Type

OS:ScheduleTypeLimits,
  {1597ca63-6524-4d98-8247-05910a47a179}, !- Handle
  Dimensionless 1,                        !- Name
  -1,                                     !- Lower Limit Value
  1,                                      !- Upper Limit Value
  Continuous;                             !- Numeric Type

OS:ScheduleTypeLimits,
  {3b829801-d8f6-4336-8d3a-e3a25a4bcdc9}, !- Handle
  Dimensionless 2,                        !- Name
  0,                                      !- Lower Limit Value
  1,                                      !- Upper Limit Value
  Continuous,                             !- Numeric Type
  Dimensionless;                          !- Unit Type

OS:ScheduleTypeLimits,
  {8332ee30-4b98-427f-8efe-a99d9187aafe}, !- Handle
  ActivityLevel,                          !- Name
  0,                                      !- Lower Limit Value
  ,                                       !- Upper Limit Value
  Continuous,                             !- Numeric Type
  ActivityLevel;                          !- Unit Type

OS:ScheduleTypeLimits,
  {70b981c3-e61d-4103-91ed-96012f8940a8}, !- Handle
  Capacity,                               !- Name
  0,                                      !- Lower Limit Value
  ,                                       !- Upper Limit Value
  Continuous,                             !- Numeric Type
  Capacity;                               !- Unit Type

OS:ScheduleTypeLimits,
  {bc6cee68-a375-4b7a-b932-81140d50374c}, !- Handle
  ClothingInsulation,                     !- Name
  0,                                      !- Lower Limit Value
  ,                                       !- Upper Limit Value
  Continuous,                             !- Numeric Type
  ClothingInsulation;                     !- Unit Type

OS:ScheduleTypeLimits,
  {ab16b34f-245a-4258-bff6-85c6b8c7d8dc}, !- Handle
  ControlMode,                            !- Name
  0,                                      !- Lower Limit Value
  1,                                      !- Upper Limit Value
  Discrete,                               !- Numeric Type
  ControlMode;                            !- Unit Type

OS:ScheduleTypeLimits,
  {ac603d38-cc62-4dc8-bd76-062df2b6a408}, !- Handle
  DeltaTemperature,                       !- Name
  ,                                       !- Lower Limit Value
  ,                                       !- Upper Limit Value
  Continuous,                             !- Numeric Type
  DeltaTemperature;                       !- Unit Type

OS:ScheduleTypeLimits,
  {c3217140-1630-4654-a154-f3b13da45ea4}, !- Handle
  LinearPowerDensity,                     !- Name
  0,                                      !- Lower Limit Value
  ,                                       !- Upper Limit Value
  Continuous,                             !- Numeric Type
  LinearPowerDensity;                     !- Unit Type

OS:ScheduleTypeLimits,
  {fdf32ad4-c52b-4bb1-a58c-97a9de0e3ccb}, !- Handle
  MassFlowRate,                           !- Name
  0,                                      !- Lower Limit Value
  ,                                       !- Upper Limit Value
  Continuous,                             !- Numeric Type
  MassFlowRate;                           !- Unit Type

OS:ScheduleTypeLimits,
  {205d2745-1acd-4c29-be72-4152d68233d7}, !- Handle
  Percent,                                !- Name
  0,                                      !- Lower Limit Value
  100,                                    !- Upper Limit Value
  Continuous,                             !- Numeric Type
  Percent;                                !- Unit Type

OS:ScheduleTypeLimits,
  {b5a26aef-a28e-4195-9f96-53acfffccfee}, !- Handle
  Pressure,                               !- Name
  ,                                       !- Lower Limit Value
  ,                                       !- Upper Limit Value
  Continuous,                             !- Numeric Type
  Pressure;                               !- Unit Type

OS:ScheduleTypeLimits,
  {d941f033-1587-434c-8ab5-185d51e1b7b1}, !- Handle
  RotationsPerMinute,                     !- Name
  0,                                      !- Lower Limit Value
  ,                                       !- Upper Limit Value
  Continuous,                             !- Numeric Type
  RotationsPerMinute;                     !- Unit Type

OS:ScheduleTypeLimits,
  {f3c5108d-547c-40b4-80ab-0868159e8824}, !- Handle
  Velocity,                               !- Name
  0,                                      !- Lower Limit Value
  ,                                       !- Upper Limit Value
  Continuous,                             !- Numeric Type
  Velocity;                               !- Unit Type

OS:ScheduleTypeLimits,
  {35e9ca61-7531-4a6e-af0b-bf39d22e5e93}, !- Handle
  VolumetricFlowRate,                     !- Name
  0,                                      !- Lower Limit Value
  ,                                       !- Upper Limit Value
  Continuous,                             !- Numeric Type
  VolumetricFlowRate;                     !- Unit Type

OS:Schedule:Day,
  {2fd83f74-6061-4eac-8199-27b2ff22dba1}, !- Handle
  OnDay,                                  !- Name
  {a12cc5ae-25a6-4426-bb7b-01c3fc576851}, !- Schedule Type Limits Name
  ,                                       !- Interpolate to Timestep
  1,                                      !- Hour 1
  0,                                      !- Minute 1
  1,                                      !- Value Until Time 1
  2,                                      !- Hour 2
  0,                                      !- Minute 2
  1,                                      !- Value Until Time 2
  3,                                      !- Hour 3
  0,                                      !- Minute 3
  1,                                      !- Value Until Time 3
  4,                                      !- Hour 4
  0,                                      !- Minute 4
  1,                                      !- Value Until Time 4
  5,                                      !- Hour 5
  0,                                      !- Minute 5
  1,                                      !- Value Until Time 5
  6,                                      !- Hour 6
  0,                                      !- Minute 6
  1,                                      !- Value Until Time 6
  7,                                      !- Hour 7
  0,                                      !- Minute 7
  1,                                      !- Value Until Time 7
  8,                                      !- Hour 8
  0,                                      !- Minute 8
  1,                                      !- Value Until Time 8
  9,                                      !- Hour 9
  0,                                      !- Minute 9
  1,                                      !- Value Until Time 9
  10,                                     !- Hour 10
  0,                                      !- Minute 10
  1,                                      !- Value Until Time 10
  11,                                     !- Hour 11
  0,                                      !- Minute 11
  1,                                      !- Value Until Time 11
  12,                                     !- Hour 12
  0,                                      !- Minute 12
  1,                                      !- Value Until Time 12
  13,                                     !- Hour 13
  0,                                      !- Minute 13
  1,                                      !- Value Until Time 13
  14,                                     !- Hour 14
  0,                                      !- Minute 14
  1,                                      !- Value Until Time 14
  15,                                     !- Hour 15
  0,                                      !- Minute 15
  1,                                      !- Value Until Time 15
  16,                                     !- Hour 16
  0,                                      !- Minute 16
  1,                                      !- Value Until Time 16
  17,                                     !- Hour 17
  0,                                      !- Minute 17
  1,                                      !- Value Until Time 17
  18,                                     !- Hour 18
  0,                                      !- Minute 18
  1,                                      !- Value Until Time 18
  19,                                     !- Hour 19
  0,                                      !- Minute 19
  1,                                      !- Value Until Time 19
  20,                                     !- Hour 20
  0,                                      !- Minute 20
  1,                                      !- Value Until Time 20
  21,                                     !- Hour 21
  0,                                      !- Minute 21
  1,                                      !- Value Until Time 21
  22,                                     !- Hour 22
  0,                                      !- Minute 22
  1,                                      !- Value Until Time 22
  23,                                     !- Hour 23
  0,                                      !- Minute 23
  1,                                      !- Value Until Time 23
  24,                                     !- Hour 24
  0,                                      !- Minute 24
  1;                                      !- Value Until Time 24

OS:Schedule:Day,
  {3e39cf74-b6cb-415d-ba60-ce9ba14eed2d}, !- Handle
  OffDay,                                 !- Name
  {a12cc5ae-25a6-4426-bb7b-01c3fc576851}, !- Schedule Type Limits Name
  ,                                       !- Interpolate to Timestep
  1,                                      !- Hour 1
  0,                                      !- Minute 1
  0,                                      !- Value Until Time 1
  2,                                      !- Hour 2
  0,                                      !- Minute 2
  0,                                      !- Value Until Time 2
  3,                                      !- Hour 3
  0,                                      !- Minute 3
  0,                                      !- Value Until Time 3
  4,                                      !- Hour 4
  0,                                      !- Minute 4
  0,                                      !- Value Until Time 4
  5,                                      !- Hour 5
  0,                                      !- Minute 5
  0,                                      !- Value Until Time 5
  6,                                      !- Hour 6
  0,                                      !- Minute 6
  0,                                      !- Value Until Time 6
  7,                                      !- Hour 7
  0,                                      !- Minute 7
  0,                                      !- Value Until Time 7
  8,                                      !- Hour 8
  0,                                      !- Minute 8
  0,                                      !- Value Until Time 8
  9,                                      !- Hour 9
  0,                                      !- Minute 9
  0,                                      !- Value Until Time 9
  10,                                     !- Hour 10
  0,                                      !- Minute 10
  0,                                      !- Value Until Time 10
  11,                                     !- Hour 11
  0,                                      !- Minute 11
  0,                                      !- Value Until Time 11
  12,                                     !- Hour 12
  0,                                      !- Minute 12
  0,                                      !- Value Until Time 12
  13,                                     !- Hour 13
  0,                                      !- Minute 13
  0,                                      !- Value Until Time 13
  14,                                     !- Hour 14
  0,                                      !- Minute 14
  0,                                      !- Value Until Time 14
  15,                                     !- Hour 15
  0,                                      !- Minute 15
  0,                                      !- Value Until Time 15
  16,                                     !- Hour 16
  0,                                      !- Minute 16
  0,                                      !- Value Until Time 16
  17,                                     !- Hour 17
  0,                                      !- Minute 17
  0,                                      !- Value Until Time 17
  18,                                     !- Hour 18
  0,                                      !- Minute 18
  0,                                      !- Value Until Time 18
  19,                                     !- Hour 19
  0,                                      !- Minute 19
  0,                                      !- Value Until Time 19
  20,                                     !- Hour 20
  0,                                      !- Minute 20
  0,                                      !- Value Until Time 20
  21,                                     !- Hour 21
  0,                                      !- Minute 21
  0,                                      !- Value Until Time 21
  22,                                     !- Hour 22
  0,                                      !- Minute 22
  0,                                      !- Value Until Time 22
  23,                                     !- Hour 23
  0,                                      !- Minute 23
  0,                                      !- Value Until Time 23
  24,                                     !- Hour 24
  0,                                      !- Minute 24
  0;                                      !- Value Until Time 24

OS:Schedule:Day,
  {a0b99aba-b1be-4a61-84f3-6134bca6c157}, !- Handle
  AverageServiceHotWaterWD,               !- Name
  {a12cc5ae-25a6-4426-bb7b-01c3fc576851}, !- Schedule Type Limits Name
  ,                                       !- Interpolate to Timestep
  1,                                      !- Hour 1
  0,                                      !- Minute 1
  0.03,                                   !- Value Until Time 1
  2,                                      !- Hour 2
  0,                                      !- Minute 2
  0.03,                                   !- Value Until Time 2
  3,                                      !- Hour 3
  0,                                      !- Minute 3
  0.03,                                   !- Value Until Time 3
  4,                                      !- Hour 4
  0,                                      !- Minute 4
  0.02,                                   !- Value Until Time 4
  5,                                      !- Hour 5
  0,                                      !- Minute 5
  0.03,                                   !- Value Until Time 5
  6,                                      !- Hour 6
  0,                                      !- Minute 6
  0.04,                                   !- Value Until Time 6
  7,                                      !- Hour 7
  0,                                      !- Minute 7
  0.19,                                   !- Value Until Time 7
  8,                                      !- Hour 8
  0,                                      !- Minute 8
  0.26,                                   !- Value Until Time 8
  9,                                      !- Hour 9
  0,                                      !- Minute 9
  0.32,                                   !- Value Until Time 9
  10,                                     !- Hour 10
  0,                                      !- Minute 10
  0.35,                                   !- Value Until Time 10
  11,                                     !- Hour 11
  0,                                      !- Minute 11
  0.35,                                   !- Value Until Time 11
  12,                                     !- Hour 12
  0,                                      !- Minute 12
  0.44,                                   !- Value Until Time 12
  13,                                     !- Hour 13
  0,                                      !- Minute 13
  0.44,                                   !- Value Until Time 13
  14,                                     !- Hour 14
  0,                                      !- Minute 14
  0.4,                                    !- Value Until Time 14
  15,                                     !- Hour 15
  0,                                      !- Minute 15
  0.37,                                   !- Value Until Time 15
  16,                                     !- Hour 16
  0,                                      !- Minute 16
  0.4,                                    !- Value Until Time 16
  17,                                     !- Hour 17
  0,                                      !- Minute 17
  0.36,                                   !- Value Until Time 17
  18,                                     !- Hour 18
  0,                                      !- Minute 18
  0.31,                                   !- Value Until Time 18
  19,                                     !- Hour 19
  0,                                      !- Minute 19
  0.24,                                   !- Value Until Time 19
  20,                                     !- Hour 20
  0,                                      !- Minute 20
  0.18,                                   !- Value Until Time 20
  21,                                     !- Hour 21
  0,                                      !- Minute 21
  0.16,                                   !- Value Until Time 21
  22,                                     !- Hour 22
  0,                                      !- Minute 22
  0.14,                                   !- Value Until Time 22
  23,                                     !- Hour 23
  0,                                      !- Minute 23
  0.08,                                   !- Value Until Time 23
  24,                                     !- Hour 24
  0,                                      !- Minute 24
  0.05;                                   !- Value Until Time 24

OS:Schedule:Day,
  {556565c5-4ff4-41f6-b740-850c83a5a9ec}, !- Handle
  AverageServiceHotWaterSat,              !- Name
  {a12cc5ae-25a6-4426-bb7b-01c3fc576851}, !- Schedule Type Limits Name
  ,                                       !- Interpolate to Timestep
  1,                                      !- Hour 1
  0,                                      !- Minute 1
  0.04,                                   !- Value Until Time 1
  2,                                      !- Hour 2
  0,                                      !- Minute 2
  0.03,                                   !- Value Until Time 2
  3,                                      !- Hour 3
  0,                                      !- Minute 3
  0.03,                                   !- Value Until Time 3
  4,                                      !- Hour 4
  0,                                      !- Minute 4
  0.02,                                   !- Value Until Time 4
  5,                                      !- Hour 5
  0,                                      !- Minute 5
  0.02,                                   !- Value Until Time 5
  6,                                      !- Hour 6
  0,                                      !- Minute 6
  0.03,                                   !- Value Until Time 6
  7,                                      !- Hour 7
  0,                                      !- Minute 7
  0.14,                                   !- Value Until Time 7
  8,                                      !- Hour 8
  0,                                      !- Minute 8
  0.14,                                   !- Value Until Time 8
  9,                                      !- Hour 9
  0,                                      !- Minute 9
  0.14,                                   !- Value Until Time 9
  10,                                     !- Hour 10
  0,                                      !- Minute 10
  0.19,                                   !- Value Until Time 10
  11,                                     !- Hour 11
  0,                                      !- Minute 11
  0.17,                                   !- Value Until Time 11
  12,                                     !- Hour 12
  0,                                      !- Minute 12
  0.21,                                   !- Value Until Time 12
  13,                                     !- Hour 13
  0,                                      !- Minute 13
  0.18,                                   !- Value Until Time 13
  14,                                     !- Hour 14
  0,                                      !- Minute 14
  0.17,                                   !- Value Until Time 14
  15,                                     !- Hour 15
  0,                                      !- Minute 15
  0.19,                                   !- Value Until Time 15
  16,                                     !- Hour 16
  0,                                      !- Minute 16
  0.2,                                    !- Value Until Time 16
  17,                                     !- Hour 17
  0,                                      !- Minute 17
  0.21,                                   !- Value Until Time 17
  18,                                     !- Hour 18
  0,                                      !- Minute 18
  0.2,                                    !- Value Until Time 18
  19,                                     !- Hour 19
  0,                                      !- Minute 19
  0.15,                                   !- Value Until Time 19
  20,                                     !- Hour 20
  0,                                      !- Minute 20
  0.17,                                   !- Value Until Time 20
  21,                                     !- Hour 21
  0,                                      !- Minute 21
  0.13,                                   !- Value Until Time 21
  22,                                     !- Hour 22
  0,                                      !- Minute 22
  0.11,                                   !- Value Until Time 22
  23,                                     !- Hour 23
  0,                                      !- Minute 23
  0.06,                                   !- Value Until Time 23
  24,                                     !- Hour 24
  0,                                      !- Minute 24
  0.05;                                   !- Value Until Time 24

OS:Schedule:Day,
  {67e3e99f-777c-48a4-9048-e9af65e5ab03}, !- Handle
  AverageServiceHotWaterSun,              !- Name
  {a12cc5ae-25a6-4426-bb7b-01c3fc576851}, !- Schedule Type Limits Name
  ,                                       !- Interpolate to Timestep
  1,                                      !- Hour 1
  0,                                      !- Minute 1
  0.04,                                   !- Value Until Time 1
  2,                                      !- Hour 2
  0,                                      !- Minute 2
  0.03,                                   !- Value Until Time 2
  3,                                      !- Hour 3
  0,                                      !- Minute 3
  0.03,                                   !- Value Until Time 3
  4,                                      !- Hour 4
  0,                                      !- Minute 4
  0.02,                                   !- Value Until Time 4
  5,                                      !- Hour 5
  0,                                      !- Minute 5
  0.02,                                   !- Value Until Time 5
  6,                                      !- Hour 6
  0,                                      !- Minute 6
  0.03,                                   !- Value Until Time 6
  7,                                      !- Hour 7
  0,                                      !- Minute 7
  0.14,                                   !- Value Until Time 7
  8,                                      !- Hour 8
  0,                                      !- Minute 8
  0.13,                                   !- Value Until Time 8
  9,                                      !- Hour 9
  0,                                      !- Minute 9
  0.1,                                    !- Value Until Time 9
  10,                                     !- Hour 10
  0,                                      !- Minute 10
  0.09,                                   !- Value Until Time 10
  11,                                     !- Hour 11
  0,                                      !- Minute 11
  0.12,                                   !- Value Until Time 11
  12,                                     !- Hour 12
  0,                                      !- Minute 12
  0.12,                                   !- Value Until Time 12
  13,                                     !- Hour 13
  0,                                      !- Minute 13
  0.11,                                   !- Value Until Time 13
  14,                                     !- Hour 14
  0,                                      !- Minute 14
  0.12,                                   !- Value Until Time 14
  15,                                     !- Hour 15
  0,                                      !- Minute 15
  0.14,                                   !- Value Until Time 15
  16,                                     !- Hour 16
  0,                                      !- Minute 16
  0.15,                                   !- Value Until Time 16
  17,                                     !- Hour 17
  0,                                      !- Minute 17
  0.17,                                   !- Value Until Time 17
  18,                                     !- Hour 18
  0,                                      !- Minute 18
  0.18,                                   !- Value Until Time 18
  19,                                     !- Hour 19
  0,                                      !- Minute 19
  0.13,                                   !- Value Until Time 19
  20,                                     !- Hour 20
  0,                                      !- Minute 20
  0.16,                                   !- Value Until Time 20
  21,                                     !- Hour 21
  0,                                      !- Minute 21
  0.11,                                   !- Value Until Time 21
  22,                                     !- Hour 22
  0,                                      !- Minute 22
  0.1,                                    !- Value Until Time 22
  23,                                     !- Hour 23
  0,                                      !- Minute 23
  0.06,                                   !- Value Until Time 23
  24,                                     !- Hour 24
  0,                                      !- Minute 24
  0.04;                                   !- Value Until Time 24

OS:Schedule:Day,
  {07c41fdd-3e2d-4875-bda3-82956228a8a5}, !- Handle
  AssemblyOccupancyWD,                    !- Name
  {a12cc5ae-25a6-4426-bb7b-01c3fc576851}, !- Schedule Type Limits Name
  ,                                       !- Interpolate to Timestep
  1,                                      !- Hour 1
  0,                                      !- Minute 1
  0,                                      !- Value Until Time 1
  2,                                      !- Hour 2
  0,                                      !- Minute 2
  0,                                      !- Value Until Time 2
  3,                                      !- Hour 3
  0,                                      !- Minute 3
  0,                                      !- Value Until Time 3
  4,                                      !- Hour 4
  0,                                      !- Minute 4
  0,                                      !- Value Until Time 4
  5,                                      !- Hour 5
  0,                                      !- Minute 5
  0,                                      !- Value Until Time 5
  6,                                      !- Hour 6
  0,                                      !- Minute 6
  0,                                      !- Value Until Time 6
  7,                                      !- Hour 7
  0,                                      !- Minute 7
  0,                                      !- Value Until Time 7
  8,                                      !- Hour 8